38
Properties=species:S:1:pos:R:3 scaffold_4=T Eopt=T -946.200750=T pbc="F F F"
O       -0.86083200      -1.33991300      -0.67425600
O       -0.38512300       0.67817900       0.60159400
C       -2.15472600      -1.55465900      -0.23970700
C       -2.54033400      -2.89719900      -0.15701700
H       -1.81251700      -3.65844800      -0.42597600
C       -3.82400900      -3.24106100       0.26258800
H       -4.10935900      -4.28842200       0.32857800
C       -4.72998900      -2.23283400       0.60634400
C       -4.34362300      -0.89850300       0.50844400
C       -3.05787800      -0.51659200       0.07052100
C       -2.73234000       0.92132000      -0.07024100
C       -1.45824200       1.45564500       0.21032100
C       -1.21722300       2.83122500       0.13419100
H       -0.22137000       3.19382600       0.37605700
C       -2.23382500       3.70698400      -0.24433700
H       -2.03447400       4.77452700      -0.30308000
C       -3.49891400       3.20086500      -0.55868000
C       -3.73348700       1.83060000      -0.47116500
B        0.03242800      -0.44275700      -0.10871200
C        1.54517700      -0.72877800      -0.27521000
C        2.50362900       0.11354700       0.17765800
C        3.95526800      -0.04883600       0.09398300
C        4.57290600      -1.17330900      -0.49377900
C        4.78190000       0.96373200       0.62236000
C        5.96037600      -1.27503100      -0.55003200
H        3.95979700      -1.97028800      -0.90679700
C        6.17269300       0.86266900       0.56668400
H        4.31697500       1.83564500       1.07983500
C        6.76735600      -0.25803900      -0.02060800
H        6.41926000      -2.14923900      -1.00698000
H        6.79152700       1.65584200       0.98056200
H        7.85092400      -0.34196200      -0.06636600
H        2.17723700       1.03186600       0.67108700
H        1.84571800      -1.65216900      -0.77400600
H       -5.72944500      -2.48315800       0.95363100
H       -5.04585600      -0.11782600       0.78913700
H       -4.71406700       1.43920800      -0.72948800
H       -4.29714700       3.86778200      -0.87523300
