56
Properties=species:S:1:pos:R:3 scaffold_8=T Eopt=T -1331.951782=T pbc="F F F"
O        0.91548600       0.13623800       0.78431300
O        0.29243500      -1.32241500      -1.05709600
C       -1.25663900       0.91399500      -0.03730300
C       -1.77574500      -0.48078700      -0.02428100
C       -1.51063500      -2.79572300      -0.79167600
C        0.52747000       2.45358100       0.64411000
C       -0.26397000       3.56335700       0.26393200
C       -2.01370300       1.98706100      -0.52368800
C       -1.53770600       3.33023100      -0.36004000
C       -3.00870300      -0.80504700       0.55691800
C       -3.54851000      -2.12490400       0.40534700
C       -2.79895900      -3.12208100      -0.30809400
C       -2.29213600       4.46388100      -0.77579900
C       -4.82443800      -2.49308600       0.91922400
C       -3.34609400      -4.42215300      -0.47949900
H       -0.89917300      -3.55269000      -1.27674500
H        1.52440000       2.60404000       1.05119300
C        0.19364500       4.89577500       0.44705000
C       -1.82358400       5.74917300      -0.58172600
C       -0.56865800       5.96953900       0.03450700
H        1.16233300       5.05235700       0.91862100
H       -3.26072900       4.31945200      -1.24459800
H       -2.42366600       6.59755500      -0.90357000
H       -0.20772900       6.98530500       0.18128200
C       -5.33347700      -3.76417000       0.73422000
C       -4.58872900      -4.73984800       0.02920200
H       -2.76189900      -5.16478400      -1.02023300
H       -5.41698700      -1.75956200       1.45739300
H       -6.31406900      -4.01664900       1.13189800
H       -4.99789500      -5.73829300      -0.10956400
C       -3.31778100       1.77203600      -1.25585000
H       -3.30525400       2.32260500      -2.20499100
H       -3.49277200       0.71622500      -1.47138500
H       -4.17147100       2.14834600      -0.67608700
C       -3.78451600       0.19432100       1.38337400
H       -4.71884200       0.48850000       0.88639800
H       -4.05930200      -0.25532800       2.34584400
H       -3.20443800       1.09830800       1.57834900
C        0.05387900       1.17595300       0.47032300
C       -1.00773300      -1.52771500      -0.62418800
B        1.25895300      -0.76172500      -0.23018600
C        2.73677400      -1.15937000      -0.45440500
C        3.75246900      -0.60860500       0.25201900
H        3.49648400       0.14682800       0.99835400
C        5.18200500      -0.90090000       0.14750000
C        5.71120000      -1.84860700      -0.75425100
C        6.07885900      -0.20425500       0.98306400
C        7.08193100      -2.08505700      -0.81487700
H        5.04226800      -2.40094300      -1.40931300
C        7.45290400      -0.44088900       0.92340500
H        5.68210400       0.52866700       1.68383600
C        7.95966500      -1.38286400       0.02316000
H        7.47245700      -2.81920700      -1.51638700
H        8.12711100       0.10769700       1.57751800
H        9.02983100      -1.57120800      -0.02726900
H        2.96458400      -1.91623200      -1.20741400
