44
Properties=species:S:1:pos:R:3 scaffold_9=T Eopt=T -1323.175996=T pbc="F F F"
O        0.75286800      -0.33840000      -0.76317400
C       -0.30187400      -1.18957100      -0.47827000
C       -0.06116000      -2.55315600      -0.63374500
C       -1.04892000      -3.50821900      -0.33034500
C       -2.25017000      -3.02518400       0.14866700
C       -2.49416600      -1.65946800       0.29302200
O       -3.75651000      -1.46777400       0.79756100
C       -4.21880500      -2.78218100       1.17218000
O       -3.37000100      -3.74152100       0.52161200
C       -1.55627800      -0.68024400      -0.04431700
C       -1.83991500       0.76230300       0.05225000
C       -0.91015000       1.70807900       0.56649200
O        0.36567600       1.34109900       0.95841000
C       -1.22824200       3.05704500       0.72191700
C       -2.48162500       3.56496800       0.33626900
C       -3.37315400       2.66259800      -0.21005000
C       -3.05665400       1.31241500      -0.35541800
O       -4.07293000       0.67428000      -1.02534700
C       -5.16901300       1.60553200      -1.00269400
O       -4.61659100       2.91199500      -0.75393100
H       -0.86730100      -4.57199800      -0.45005000
H       -5.25003600      -2.91374700       0.82806700
H       -4.12939100      -2.89307000       2.26581500
H       -2.72457000       4.61791600       0.44209100
H       -5.85287800       1.33748000      -0.17955300
H       -5.66900100       1.59871600      -1.97602100
H       -0.47513100       3.71585300       1.14392400
H        0.91874000      -2.86639700      -0.98144600
B        1.22211600       0.56459300       0.19011200
C        2.74533600       0.73672900       0.40893100
C        3.66522700      -0.01596600      -0.23980500
H        3.08664000       1.50093900       1.10998300
H        3.29747800      -0.77428100      -0.93480200
C        5.12270100       0.05612100      -0.13299800
C        5.90349000      -0.83365500      -0.89885900
C        5.78997600       0.97544000       0.70425400
C        7.29736700      -0.81091900      -0.83355500
H        5.40025200      -1.54687000      -1.54983300
C        7.18055800       0.99869900       0.77049900
H        5.21281300       1.67439800       1.30422900
C        7.94146300       0.10606200       0.00240100
H        7.88021800      -1.50648800      -1.43347200
H        7.67785800       1.71442400       1.42173100
H        9.02767600       0.12815700       0.05677800
