58
Properties=species:S:1:pos:R:3 scaffold_5=T Eopt=T -1408.117561=T pbc="F F F"
O       -1.31230100       1.62648000      -0.51729800
O       -1.60906900      -0.51019400       0.60050100
C       -0.08004900       1.89589800       0.05776100
C        0.14987400       3.23288700       0.38787700
H       -0.61725600       3.96755700       0.15849900
C        1.33905300       3.58688200       1.02002600
H        1.52492900       4.62396900       1.28951800
C        2.26479500       2.59896300       1.35114900
C        2.05323600       1.25405800       1.00948500
C        0.88237400       0.89315600       0.28657100
C        0.67448300      -0.47721200      -0.25611200
C       -0.53490200      -1.15073700       0.00004400
C       -0.72308300      -2.49255700      -0.33335500
H       -1.66984700      -2.96619700      -0.08787500
C        0.29515600      -3.18155400      -0.98886600
H        0.15960900      -4.22620700      -1.25931100
C        1.46510700      -2.51190100      -1.34288100
C        1.67028700      -1.16499400      -1.00291900
B       -2.13793500       0.61744600      -0.03381600
C       -3.66698000       0.77291000      -0.20624100
C       -4.54153500      -0.19005600       0.17047900
C       -6.00115100      -0.16529300       0.07705100
C       -6.72179900       0.93059200      -0.44351500
C       -6.72766900      -1.28747500       0.52502200
C       -8.11204100       0.89964800      -0.51257600
H       -6.18669500       1.80938100      -0.79427100
C       -8.12116200      -1.31927200       0.45666800
H       -6.18238700      -2.13864800       0.92979600
C       -8.81870800      -0.22482800      -0.06311300
H       -8.65150700       1.75343600      -0.91705400
H       -8.66209800      -2.19518600       0.80811100
H       -9.90490400      -0.24436200      -0.11843800
H       -4.12943900      -1.10514100       0.60180700
H       -4.05161800       1.69719700      -0.64147500
H        3.15900400       2.86035700       1.91046100
H        2.22912800      -3.02596000      -1.91972300
C        3.05481200       0.25813600       1.46586500
C        4.42828500       0.54035400       1.37279700
C        2.66114400      -0.96311000       2.04006000
C        5.38021600      -0.37050200       1.83044300
H        4.74694800       1.46651100       0.90180300
C        3.61178400      -1.87708400       2.49538800
H        1.60337000      -1.19273000       2.13124700
C        4.97651400      -1.58613400       2.39052200
H        6.43860100      -0.13829600       1.73272000
H        3.28589600      -2.81573800       2.93874200
H        5.71743500      -2.30076300       2.74274000
C        2.91241100      -0.50977900      -1.48327300
C        4.14111600      -1.18913300      -1.42305900
C        2.88827200       0.77829500      -2.04605200
C        5.31103200      -0.59926100      -1.90126800
H        4.17995200      -2.17210800      -0.96112300
C        4.05782500       1.37128800      -2.52219300
H        1.94551900       1.31383700      -2.11171400
C        5.27578800       0.68613800      -2.44973100
H        6.25401600      -1.13700000      -1.82868600
H        4.01701000       2.36808300      -2.95642900
H        6.18807400       1.15054300      -2.81821200
